<?xml version="1.0" encoding="UTF-8"?>

<!-- generated on 2026-01-22T15:14:28.020467-05:00 by Eclipse SUMO netconvert 1.25.0
<netconvertConfiguration xmlns:xsi="http://www.w3.org/2001/XMLSchema-instance" xsi:noNamespaceSchemaLocation="http://sumo.dlr.de/xsd/netconvertConfiguration.xsd">

    <input>
        <osm-files value="hw_401.osm"/>
    </input>

    <output>
        <output-file value="hw_401.net.xml"/>
    </output>

    <projection>
        <proj.utm value="true"/>
    </projection>

    <ramp_guessing>
        <ramps.guess value="true"/>
    </ramp_guessing>

    <junctions>
        <junctions.join value="true"/>
    </junctions>

    <report>
        <ignore-errors value="true"/>
    </report>

</netconvertConfiguration>
-->

<net version="1.20" junctionCornerDetail="5" limitTurnSpeed="5.50" xmlns:xsi="http://www.w3.org/2001/XMLSchema-instance" xsi:noNamespaceSchemaLocation="http://sumo.dlr.de/xsd/net_file.xsd">

    <location netOffset="-613286.44,-4835902.02" convBoundary="0.00,0.00,36873.54,16071.02" origBoundary="-79.594825,43.667490,-79.133200,43.805581" projParameter="+proj=utm +zone=17 +ellps=WGS84 +datum=WGS84 +units=m +no_defs"/>

    <type id="highway.motorway" priority="14" numLanes="2" speed="39.44" allow="private emergency authority army vip passenger hov taxi bus coach delivery truck trailer motorcycle evehicle custom1 custom2" oneway="1"/>

    <edge id=":1009912257_0" function="internal">
        <lane id=":1009912257_0_0" index="0" allow="private emergency authority army vip passenger hov taxi bus coach delivery truck trailer motorcycle evehicle custom1 custom2" speed="27.78" length="7.95" shape="35911.74,15062.96 35913.91,15064.11 35915.58,15064.59 35917.21,15065.11 35919.30,15066.39"/>
        <lane id=":1009912257_0_1" index="1" allow="private emergency authority army vip passenger hov taxi bus coach delivery truck trailer motorcycle evehicle custom1 custom2" speed="27.78" length="7.95" shape="35909.96,15065.62 35912.09,15066.74 35913.72,15067.20 35915.32,15067.69 35917.35,15068.93"/>
        <lane id=":1009912257_0_2" index="2" allow="private emergency authority army vip passenger hov taxi bus coach delivery truck trailer motorcycle evehicle custom1 custom2" speed="27.78" length="7.95" shape="35908.19,15068.29 35910.27,15069.37 35911.86,15069.80 35913.42,15070.27 35915.41,15071.47"/>
        <lane id=":1009912257_0_3" index="3" allow="private emergency authority army vip passenger hov taxi bus coach delivery truck trailer motorcycle evehicle custom1 custom2" speed="27.78" length="7.95" shape="35906.42,15070.95 35908.44,15072.00 35910.00,15072.41 35911.53,15072.85 35913.47,15074.02"/>
        <lane id=":1009912257_0_4" index="4" allow="private emergency authority army vip passenger hov taxi bus coach delivery truck trailer motorcycle evehicle custom1 custom2" speed="27.78" length="7.95" shape="35904.65,15073.62 35906.62,15074.63 35908.14,15075.01 35909.64,15075.43 35911.53,15076.56"/>
    </edge>
    <edge id=":1010115999_0" function="internal">
        <lane id=":1010115999_0_0" index="0" allow="private emergency authority army vip passenger hov taxi bus coach delivery truck trailer motorcycle evehicle custom1 custom2" speed="27.78" length="8.21" shape="31754.98,14949.52 31752.58,14949.25 31750.89,14949.44 31749.21,14949.64 31746.81,14949.36"/>
        <lane id=":1010115999_0_1" index="1" allow="private emergency authority army vip passenger hov taxi bus coach delivery truck trailer motorcycle evehicle custom1 custom2" speed="27.78" length="8.21" shape="31755.66,14946.39 31753.26,14946.12 31751.58,14946.32 31749.90,14946.51 31747.50,14946.24"/>
        <lane id=":1010115999_0_2" index="2" allow="private emergency authority army vip passenger hov taxi bus coach delivery truck trailer motorcycle evehicle custom1 custom2" speed="27.78" length="8.21" shape="31756.34,14943.26 31753.95,14943.00 31752.27,14943.19 31750.59,14943.39 31748.19,14943.11"/>
    </edge>
    <edge id=":1010116001_0" function="internal">
        <lane id=":1010116001_0_0" index="0" allow="private emergency authority army vip passenger hov taxi bus coach delivery truck trailer motorcycle evehicle custom1 custom2" speed="27.78" length="8.21" shape="31750.59,14922.74 31752.99,14923.05 31754.67,14922.89 31756.36,14922.72 31758.75,14923.04"/>
        <lane id=":1010116001_0_1" index="1" allow="private emergency authority army vip passenger hov taxi bus coach delivery truck trailer motorcycle evehicle custom1 custom2" speed="27.78" length="8.21" shape="31749.86,14925.86 31752.25,14926.17 31753.94,14926.00 31755.62,14925.84 31758.01,14926.15"/>
        <lane id=":1010116001_0_2" index="2" allow="private emergency authority army vip passenger hov taxi bus coach delivery truck trailer motorcycle evehicle custom1 custom2" speed="27.78" length="8.21" shape="31749.12,14928.97 31751.51,14929.28 31753.20,14929.12 31754.88,14928.95 31757.27,14929.26"/>
        <lane id=":1010116001_0_3" index="3" allow="private emergency authority army vip passenger hov taxi bus coach delivery truck trailer motorcycle evehicle custom1 custom2" speed="27.78" length="8.21" shape="31749.12,14928.97 31751.39,14929.77 31752.83,14930.67 31754.26,14931.58 31756.53,14932.38"/>
    </edge>
    <edge id=":10916087370_0" function="internal">
        <lane id=":10916087370_0_0" index="0" allow="private emergency authority army vip passenger hov taxi bus coach delivery truck trailer motorcycle evehicle custom1 custom2" speed="27.78" length="0.10" shape="4632.69,5131.73 4632.69,5131.73"/>
        <lane id=":10916087370_0_1" index="1" allow="private emergency authority army vip passenger hov taxi bus coach delivery truck trailer motorcycle evehicle custom1 custom2" speed="27.78" length="0.10" shape="4631.69,5134.77 4631.69,5134.77"/>
        <lane id=":10916087370_0_2" index="2" allow="private emergency authority army vip passenger hov taxi bus coach delivery truck trailer motorcycle evehicle custom1 custom2" speed="27.78" length="0.10" shape="4630.69,5137.81 4630.69,5137.81"/>
    </edge>
    <edge id=":11518334231_0" function="internal">
        <lane id=":11518334231_0_0" index="0" allow="private emergency authority army vip passenger hov taxi bus coach delivery truck trailer motorcycle evehicle custom1 custom2" speed="27.78" length="8.21" shape="10213.35,6658.02 10215.71,6658.49 10217.41,6658.44 10219.10,6658.39 10221.47,6658.87"/>
        <lane id=":11518334231_0_1" index="1" allow="private emergency authority army vip passenger hov taxi bus coach delivery truck trailer motorcycle evehicle custom1 custom2" speed="27.78" length="8.21" shape="10213.35,6658.02 10215.57,6658.97 10216.93,6659.97 10218.30,6660.97 10220.51,6661.92"/>
        <lane id=":11518334231_0_2" index="2" allow="private emergency authority army vip passenger hov taxi bus coach delivery truck trailer motorcycle evehicle custom1 custom2" speed="27.78" length="8.21" shape="10212.40,6661.07 10214.62,6662.02 10215.98,6663.02 10217.35,6664.03 10219.56,6664.98"/>
        <lane id=":11518334231_0_3" index="3" allow="private emergency authority army vip passenger hov taxi bus coach delivery truck trailer motorcycle evehicle custom1 custom2" speed="27.78" length="8.21" shape="10211.45,6664.13 10213.66,6665.08 10215.03,6666.08 10216.40,6667.08 10218.61,6668.03"/>
    </edge>
    <edge id=":11889083162_0" function="internal">
        <lane id=":11889083162_0_0" index="0" allow="private emergency authority army vip passenger hov taxi bus coach delivery truck trailer motorcycle evehicle custom1 custom2" speed="27.78" length="8.21" shape="26216.83,12835.44 26219.19,12835.92 26220.88,12835.88 26222.58,12835.83 26224.94,12836.31"/>
        <lane id=":11889083162_0_1" index="1" allow="private emergency authority army vip passenger hov taxi bus coach delivery truck trailer motorcycle evehicle custom1 custom2" speed="27.78" length="8.21" shape="26216.83,12835.44 26219.04,12836.39 26220.40,12837.40 26221.76,12838.41 26223.98,12839.37"/>
        <lane id=":11889083162_0_2" index="2" allow="private emergency authority army vip passenger hov taxi bus coach delivery truck trailer motorcycle evehicle custom1 custom2" speed="27.78" length="8.21" shape="26215.87,12838.49 26218.08,12839.45 26219.44,12840.45 26220.80,12841.46 26223.01,12842.42"/>
        <lane id=":11889083162_0_3" index="3" allow="private emergency authority army vip passenger hov taxi bus coach delivery truck trailer motorcycle evehicle custom1 custom2" speed="27.78" length="8.21" shape="26214.90,12841.54 26217.11,12842.50 26218.48,12843.50 26219.84,12844.51 26222.05,12845.47"/>
    </edge>
    <edge id=":11889158865_0" function="internal">
        <lane id=":11889158865_0_0" index="0" allow="private emergency authority army vip passenger hov taxi bus coach delivery truck trailer motorcycle evehicle custom1 custom2" speed="27.78" length="8.21" shape="21619.27,11610.97 21616.86,11611.13 21615.24,11611.63 21613.62,11612.12 21611.22,11612.29"/>
        <lane id=":11889158865_0_1" index="1" allow="private emergency authority army vip passenger hov taxi bus coach delivery truck trailer motorcycle evehicle custom1 custom2" speed="27.78" length="8.21" shape="21619.27,11610.97 21616.88,11610.63 21615.30,11610.03 21613.72,11609.42 21611.33,11609.09"/>
        <lane id=":11889158865_0_2" index="2" allow="private emergency authority army vip passenger hov taxi bus coach delivery truck trailer motorcycle evehicle custom1 custom2" speed="27.78" length="8.21" shape="21619.38,11607.77 21616.99,11607.44 21615.41,11606.83 21613.83,11606.22 21611.44,11605.89"/>
        <lane id=":11889158865_0_3" index="3" allow="private emergency authority army vip passenger hov taxi bus coach delivery truck trailer motorcycle evehicle custom1 custom2" speed="27.78" length="8.21" shape="21619.49,11604.57 21617.11,11604.24 21615.52,11603.63 21613.94,11603.03 21611.55,11602.69"/>
        <lane id=":11889158865_0_4" index="4" allow="private emergency authority army vip passenger hov taxi bus coach delivery truck trailer motorcycle evehicle custom1 custom2" speed="27.78" length="8.21" shape="21619.61,11601.38 21617.22,11601.04 21615.64,11600.43 21614.05,11599.83 21611.67,11599.49"/>
    </edge>
    <edge id=":11913104518_0" function="internal">
        <lane id=":11913104518_0_0" index="0" allow="private emergency authority army vip passenger hov taxi bus coach delivery truck trailer motorcycle evehicle custom1 custom2" speed="27.78" length="9.72" shape="2535.09,3568.48 2537.07,3570.28 2539.22,3570.65 2541.38,3571.01 2543.36,3572.81"/>
        <lane id=":11913104518_0_1" index="1" allow="private emergency authority army vip passenger hov taxi bus coach delivery truck trailer motorcycle evehicle custom1 custom2" speed="27.78" length="9.72" shape="2532.36,3570.15 2534.34,3571.95 2536.49,3572.31 2538.65,3572.68 2540.63,3574.48"/>
        <lane id=":11913104518_0_2" index="2" allow="private emergency authority army vip passenger hov taxi bus coach delivery truck trailer motorcycle evehicle custom1 custom2" speed="27.78" length="9.72" shape="2529.63,3571.82 2531.61,3573.62 2533.76,3573.98 2535.92,3574.35 2537.90,3576.15"/>
        <lane id=":11913104518_0_3" index="3" allow="private emergency authority army vip passenger hov taxi bus coach delivery truck trailer motorcycle evehicle custom1 custom2" speed="27.78" length="9.72" shape="2526.90,3573.49 2528.87,3575.28 2531.03,3575.65 2533.19,3576.02 2535.17,3577.81"/>
        <lane id=":11913104518_0_4" index="4" allow="private emergency authority army vip passenger hov taxi bus coach delivery truck trailer motorcycle evehicle custom1 custom2" speed="27.78" length="9.72" shape="2524.17,3575.16 2526.14,3576.95 2528.30,3577.32 2530.46,3577.69 2532.43,3579.48"/>
    </edge>
    <edge id=":11921467924_0" function="internal">
        <lane id=":11921467924_0_0" index="0" allow="private emergency authority army vip passenger hov taxi bus coach delivery truck trailer motorcycle evehicle custom1 custom2" speed="27.78" length="8.21" shape="25788.73,12704.16 25791.11,12704.55 25792.80,12704.44 25794.49,12704.33 25796.87,12704.72"/>
        <lane id=":11921467924_0_1" index="1" allow="private emergency authority army vip passenger hov taxi bus coach delivery truck trailer motorcycle evehicle custom1 custom2" speed="27.78" length="8.21" shape="25788.73,12704.16 25790.98,12705.03 25792.38,12705.98 25793.78,12706.93 25796.03,12707.80"/>
        <lane id=":11921467924_0_2" index="2" allow="private emergency authority army vip passenger hov taxi bus coach delivery truck trailer motorcycle evehicle custom1 custom2" speed="27.78" length="8.21" shape="25787.89,12707.25 25790.14,12708.12 25791.54,12709.07 25792.94,12710.02 25795.19,12710.89"/>
        <lane id=":11921467924_0_3" index="3" allow="private emergency authority army vip passenger hov taxi bus coach delivery truck trailer motorcycle evehicle custom1 custom2" speed="27.78" length="8.21" shape="25787.05,12710.34 25789.30,12711.21 25790.70,12712.16 25792.10,12713.11 25794.35,12713.98"/>
    </edge>
    <edge id=":11921702788_0" function="internal">
        <lane id=":11921702788_0_0" index="0" allow="private emergency authority army vip passenger hov taxi bus coach delivery truck trailer motorcycle evehicle custom1 custom2" speed="27.78" length="8.03" shape="33427.49,15274.17 33429.76,15274.49 33431.36,15274.31 33432.98,15274.09 33435.27,15274.28"/>
        <lane id=":11921702788_0_1" index="1" allow="private emergency authority army vip passenger hov taxi bus coach delivery truck trailer motorcycle evehicle custom1 custom2" speed="27.78" length="8.03" shape="33427.49,15274.17 33429.68,15274.98 33431.06,15275.88 33432.44,15276.73 33434.66,15277.43"/>
        <lane id=":11921702788_0_2" index="2" allow="private emergency authority army vip passenger hov taxi bus coach delivery truck trailer motorcycle evehicle custom1 custom2" speed="27.78" length="8.03" shape="33426.70,15277.27 33428.94,15278.10 33430.35,15279.00 33431.78,15279.86 33434.04,15280.57"/>
        <lane id=":11921702788_0_3" index="3" allow="private emergency authority army vip passenger hov taxi bus coach delivery truck trailer motorcycle evehicle custom1 custom2" speed="27.78" length="8.03" shape="33425.91,15280.37 33428.20,15281.21 33429.65,15282.12 33431.11,15282.99 33433.42,15283.71"/>
    </edge>
    <edge id=":11922037321_0" function="internal">
        <lane id=":11922037321_0_0" index="0" allow="private emergency authority army vip passenger hov taxi bus coach delivery truck trailer motorcycle evehicle custom1 custom2" speed="27.78" length="0.10" shape="29542.30,14179.76 29542.30,14179.76"/>
        <lane id=":11922037321_0_1" index="1" allow="private emergency authority army vip passenger hov taxi bus coach delivery truck trailer motorcycle evehicle custom1 custom2" speed="27.78" length="0.10" shape="29544.42,14177.37 29544.42,14177.37"/>
        <lane id=":11922037321_0_2" index="2" allow="private emergency authority army vip passenger hov taxi bus coach delivery truck trailer motorcycle evehicle custom1 custom2" speed="27.78" length="0.10" shape="29546.54,14174.97 29546.54,14174.97"/>
        <lane id=":11922037321_0_3" index="3" allow="private emergency authority army vip passenger hov taxi bus coach delivery truck trailer motorcycle evehicle custom1 custom2" speed="27.78" length="0.10" shape="29548.66,14172.57 29548.66,14172.57"/>
        <lane id=":11922037321_0_4" index="4" allow="private emergency authority army vip passenger hov taxi bus coach delivery truck trailer motorcycle evehicle custom1 custom2" speed="27.78" length="0.10" shape="29550.78,14170.18 29550.78,14170.18"/>
    </edge>
    <edge id=":11925334064_0" function="internal">
        <lane id=":11925334064_0_0" index="0" allow="private emergency authority army vip passenger hov taxi bus coach delivery truck trailer motorcycle evehicle custom1 custom2" speed="27.78" length="8.21" shape="29140.65,13853.30 29142.90,13854.16 29144.58,13854.39 29146.26,13854.62 29148.51,13855.47"/>
        <lane id=":11925334064_0_1" index="1" allow="private emergency authority army vip passenger hov taxi bus coach delivery truck trailer motorcycle evehicle custom1 custom2" speed="27.78" length="8.21" shape="29140.65,13853.30 29142.68,13854.60 29143.86,13855.82 29145.04,13857.03 29147.07,13858.33"/>
        <lane id=":11925334064_0_2" index="2" allow="private emergency authority army vip passenger hov taxi bus coach delivery truck trailer motorcycle evehicle custom1 custom2" speed="27.78" length="8.21" shape="29139.21,13856.16 29141.24,13857.46 29142.42,13858.67 29143.60,13859.89 29145.63,13861.19"/>
        <lane id=":11925334064_0_3" index="3" allow="private emergency authority army vip passenger hov taxi bus coach delivery truck trailer motorcycle evehicle custom1 custom2" speed="27.78" length="8.21" shape="29137.77,13859.02 29139.80,13860.32 29140.98,13861.53 29142.16,13862.74 29144.19,13864.05"/>
    </edge>
    <edge id=":12045259759_0" function="internal">
        <lane id=":12045259759_0_0" index="0" allow="private emergency authority army vip passenger hov taxi bus coach delivery truck trailer motorcycle evehicle custom1 custom2" speed="27.78" length="0.30" shape="25484.29,12695.68 25484.01,12695.60"/>
        <lane id=":12045259759_0_1" index="1" allow="private emergency authority army vip passenger hov taxi bus coach delivery truck trailer motorcycle evehicle custom1 custom2" speed="27.78" length="0.30" shape="25485.23,12692.62 25484.94,12692.54"/>
        <lane id=":12045259759_0_2" index="2" allow="private emergency authority army vip passenger hov taxi bus coach delivery truck trailer motorcycle evehicle custom1 custom2" speed="27.78" length="0.30" shape="25486.16,12689.56 25485.87,12689.48"/>
        <lane id=":12045259759_0_3" index="3" allow="private emergency authority army vip passenger hov taxi bus coach delivery truck trailer motorcycle evehicle custom1 custom2" speed="27.78" length="0.30" shape="25487.09,12686.50 25486.81,12686.42"/>
    </edge>
    <edge id=":12045259763_0" function="internal">
        <lane id=":12045259763_0_0" index="0" allow="private emergency authority army vip passenger hov taxi bus coach delivery truck trailer motorcycle evehicle custom1 custom2" speed="27.78" length="0.30" shape="24801.02,12430.15 24800.74,12430.06"/>
        <lane id=":12045259763_0_1" index="1" allow="private emergency authority army vip passenger hov taxi bus coach delivery truck trailer motorcycle evehicle custom1 custom2" speed="27.78" length="0.30" shape="24802.03,12427.12 24801.75,12427.02"/>
        <lane id=":12045259763_0_2" index="2" allow="private emergency authority army vip passenger hov taxi bus coach delivery truck trailer motorcycle evehicle custom1 custom2" speed="27.78" length="0.30" shape="24803.05,12424.08 24802.76,12423.99"/>
    </edge>
    <edge id=":12392952934_0" function="internal">
        <lane id=":12392952934_0_0" index="0" allow="private emergency authority army vip passenger hov taxi bus coach delivery truck trailer motorcycle evehicle custom1 custom2" speed="27.78" length="0.62" shape="34215.02,15381.97 34214.23,15382.22"/>
        <lane id=":12392952934_0_1" index="1" allow="private emergency authority army vip passenger hov taxi bus coach delivery truck trailer motorcycle evehicle custom1 custom2" speed="27.78" length="0.62" shape="34213.98,15378.94 34213.32,15379.15"/>
        <lane id=":12392952934_0_2" index="2" allow="private emergency authority army vip passenger hov taxi bus coach delivery truck trailer motorcycle evehicle custom1 custom2" speed="27.78" length="0.62" shape="34212.94,15375.92 34212.42,15376.08"/>
        <lane id=":12392952934_0_3" index="3" allow="private emergency authority army vip passenger hov taxi bus coach delivery truck trailer motorcycle evehicle custom1 custom2" speed="27.78" length="0.62" shape="34211.90,15372.89 34211.52,15373.01"/>
    </edge>
    <edge id=":12407049984_0" function="internal">
        <lane id=":12407049984_0_0" index="0" allow="private emergency authority army vip passenger hov taxi bus coach delivery truck trailer motorcycle evehicle custom1 custom2" speed="27.78" length="0.29" shape="36648.99,15813.69 36649.17,15813.85"/>
        <lane id=":12407049984_0_1" index="1" allow="private emergency authority army vip passenger hov taxi bus coach delivery truck trailer motorcycle evehicle custom1 custom2" speed="27.78" length="0.29" shape="36646.84,15816.06 36647.06,15816.25"/>
        <lane id=":12407049984_0_2" index="2" allow="private emergency authority army vip passenger hov taxi bus coach delivery truck trailer motorcycle evehicle custom1 custom2" speed="27.78" length="0.29" shape="36644.70,15818.44 36644.95,15818.66"/>
    </edge>
    <edge id=":130026476_0" function="internal">
        <lane id=":130026476_0_0" index="0" allow="private emergency authority army vip passenger hov taxi bus coach delivery truck trailer motorcycle evehicle custom1 custom2" speed="27.78" length="0.30" shape="10882.83,6942.15 10882.53,6942.06"/>
        <lane id=":130026476_0_1" index="1" allow="private emergency authority army vip passenger hov taxi bus coach delivery truck trailer motorcycle evehicle custom1 custom2" speed="27.78" length="0.30" shape="10883.77,6939.09 10883.48,6939.01"/>
        <lane id=":130026476_0_2" index="2" allow="private emergency authority army vip passenger hov taxi bus coach delivery truck trailer motorcycle evehicle custom1 custom2" speed="27.78" length="0.30" shape="10884.70,6936.03 10884.42,6935.95"/>
        <lane id=":130026476_0_3" index="3" allow="private emergency authority army vip passenger hov taxi bus coach delivery truck trailer motorcycle evehicle custom1 custom2" speed="27.78" length="0.30" shape="10885.64,6932.97 10885.36,6932.89"/>
    </edge>
    <edge id=":130026482_0" function="internal">
        <lane id=":130026482_0_0" index="0" allow="private emergency authority army vip passenger hov taxi bus coach delivery truck trailer motorcycle evehicle custom1 custom2" speed="27.78" length="0.30" shape="10896.43,6926.52 10896.10,6926.41"/>
        <lane id=":130026482_0_1" index="1" allow="private emergency authority army vip passenger hov taxi bus coach delivery truck trailer motorcycle evehicle custom1 custom2" speed="27.78" length="0.30" shape="10897.41,6923.47 10897.10,6923.37"/>
        <lane id=":130026482_0_2" index="2" allow="private emergency authority army vip passenger hov taxi bus coach delivery truck trailer motorcycle evehicle custom1 custom2" speed="27.78" length="0.30" shape="10898.38,6920.43 10898.10,6920.33"/>
        <lane id=":130026482_0_3" index="3" allow="private emergency authority army vip passenger hov taxi bus coach delivery truck trailer motorcycle evehicle custom1 custom2" speed="27.78" length="0.30" shape="10899.35,6917.38 10899.10,6917.29"/>
        <lane id=":130026482_0_4" index="4" allow="private emergency authority army vip passenger hov taxi bus coach delivery truck trailer motorcycle evehicle custom1 custom2" speed="27.78" length="0.30" shape="10900.33,6914.33 10900.09,6914.25"/>
    </edge>
    <edge id=":130026491_0" function="internal">
        <lane id=":130026491_0_0" index="0" allow="private emergency authority army vip passenger hov taxi bus coach delivery truck trailer motorcycle evehicle custom1 custom2" speed="27.78" length="0.34" shape="10905.81,6896.12 10906.04,6896.19"/>
        <lane id=":130026491_0_1" index="1" allow="private emergency authority army vip passenger hov taxi bus coach delivery truck trailer motorcycle evehicle custom1 custom2" speed="27.78" length="0.34" shape="10904.84,6899.16 10905.13,6899.25"/>
        <lane id=":130026491_0_2" index="2" allow="private emergency authority army vip passenger hov taxi bus coach delivery truck trailer motorcycle evehicle custom1 custom2" speed="27.78" length="0.34" shape="10903.86,6902.21 10904.22,6902.32"/>
        <lane id=":130026491_0_3" index="3" allow="private emergency authority army vip passenger hov taxi bus coach delivery truck trailer motorcycle evehicle custom1 custom2" speed="27.78" length="0.34" shape="10902.88,6905.26 10903.31,6905.39"/>
    </edge>
    <edge id=":130026509_0" function="internal">
        <lane id=":130026509_0_0" index="0" allow="private emergency authority army vip passenger hov taxi bus coach delivery truck trailer motorcycle evehicle custom1 custom2" speed="27.78" length="0.29" shape="10905.87,6876.34 10906.11,6876.41"/>
        <lane id=":130026509_0_1" index="1" allow="private emergency authority army vip passenger hov taxi bus coach delivery truck trailer motorcycle evehicle custom1 custom2" speed="27.78" length="0.29" shape="10904.90,6879.39 10905.18,6879.47"/>
        <lane id=":130026509_0_2" index="2" allow="private emergency authority army vip passenger hov taxi bus coach delivery truck trailer motorcycle evehicle custom1 custom2" speed="27.78" length="0.29" shape="10903.93,6882.44 10904.25,6882.53"/>
    </edge>
    <edge id=":130026687_0" function="internal">
        <lane id=":130026687_0_0" index="0" allow="private emergency authority army vip passenger hov taxi bus coach delivery truck trailer motorcycle evehicle custom1 custom2" speed="27.78" length="8.11" shape="11012.42,6984.27 11010.23,6983.58 11008.61,6983.50 11006.98,6983.45 11004.75,6982.87"/>
        <lane id=":130026687_0_1" index="1" allow="private emergency authority army vip passenger hov taxi bus coach delivery truck trailer motorcycle evehicle custom1 custom2" speed="27.78" length="8.11" shape="11013.71,6981.34 11011.47,6980.63 11009.82,6980.53 11008.16,6980.47 11005.87,6979.88"/>
        <lane id=":130026687_0_2" index="2" allow="private emergency authority army vip passenger hov taxi bus coach delivery truck trailer motorcycle evehicle custom1 custom2" speed="27.78" length="8.11" shape="11014.99,6978.41 11012.71,6977.68 11011.02,6977.57 11009.33,6977.49 11007.00,6976.88"/>
        <lane id=":130026687_0_3" index="3" allow="private emergency authority army vip passenger hov taxi bus coach delivery truck trailer motorcycle evehicle custom1 custom2" speed="27.78" length="8.11" shape="11016.28,6975.47 11013.94,6974.73 11012.23,6974.60 11010.50,6974.52 11008.12,6973.89"/>
    </edge>
    <edge id=":130026762_0" function="internal">
        <lane id=":130026762_0_0" index="0" allow="private emergency authority army vip passenger hov taxi bus coach delivery truck trailer motorcycle evehicle custom1 custom2" speed="27.78" length="8.21" shape="10436.50,6799.49 10434.15,6798.98 10432.46,6799.00 10430.76,6799.03 10428.41,6798.52"/>
        <lane id=":130026762_0_1" index="1" allow="private emergency authority army vip passenger hov taxi bus coach delivery truck trailer motorcycle evehicle custom1 custom2" speed="27.78" length="8.21" shape="10436.50,6799.49 10434.30,6798.50 10432.95,6797.48 10431.60,6796.46 10429.40,6795.48"/>
        <lane id=":130026762_0_2" index="2" allow="private emergency authority army vip passenger hov taxi bus coach delivery truck trailer motorcycle evehicle custom1 custom2" speed="27.78" length="8.21" shape="10437.50,6796.45 10435.30,6795.46 10433.95,6794.44 10432.60,6793.42 10430.40,6792.44"/>
        <lane id=":130026762_0_3" index="3" allow="private emergency authority army vip passenger hov taxi bus coach delivery truck trailer motorcycle evehicle custom1 custom2" speed="27.78" length="8.21" shape="10438.50,6793.41 10436.30,6792.42 10434.95,6791.40 10433.60,6790.38 10431.39,6789.39"/>
        <lane id=":130026762_0_4" index="4" allow="private emergency authority army vip passenger hov taxi bus coach delivery truck trailer motorcycle evehicle custom1 custom2" speed="27.78" length="8.21" shape="10439.50,6790.37 10437.30,6789.38 10435.94,6788.36 10434.59,6787.34 10432.39,6786.35"/>
    </edge>
    <edge id=":136640516_0" function="internal">
        <lane id=":136640516_0_0" index="0" allow="private emergency authority army vip passenger hov taxi bus coach delivery truck trailer motorcycle evehicle custom1 custom2" speed="27.78" length="8.16" shape="36731.72,15856.19 36733.57,15857.64 36735.08,15858.32 36736.61,15858.97 36738.52,15860.36"/>
        <lane id=":136640516_0_1" index="1" allow="private emergency authority army vip passenger hov taxi bus coach delivery truck trailer motorcycle evehicle custom1 custom2" speed="27.78" length="8.16" shape="36729.49,15858.49 36731.37,15859.96 36732.89,15860.66 36734.44,15861.33 36736.39,15862.74"/>
        <lane id=":136640516_0_2" index="2" allow="private emergency authority army vip passenger hov taxi bus coach delivery truck trailer motorcycle evehicle custom1 custom2" speed="27.78" length="8.16" shape="36727.26,15860.78 36729.16,15862.28 36730.71,15863.00 36732.28,15863.69 36734.25,15865.12"/>
    </edge>
    <edge id=":136642224_0" function="internal">
        <lane id=":136642224_0_0" index="0" allow="private emergency authority army vip passenger hov taxi bus coach delivery truck trailer motorcycle evehicle custom1 custom2" speed="27.78" length="8.13" shape="36687.99,15918.50 36686.10,15917.11 36684.58,15916.47 36683.04,15915.85 36681.10,15914.52"/>
        <lane id=":136642224_0_1" index="1" allow="private emergency authority army vip passenger hov taxi bus coach delivery truck trailer motorcycle evehicle custom1 custom2" speed="27.78" length="8.13" shape="36687.99,15918.50 36686.42,15916.72 36685.62,15915.26 36684.81,15913.81 36683.19,15912.09"/>
        <lane id=":136642224_0_2" index="2" allow="private emergency authority army vip passenger hov taxi bus coach delivery truck trailer motorcycle evehicle custom1 custom2" speed="27.78" length="8.13" shape="36690.16,15916.15 36688.57,15914.35 36687.75,15912.87 36686.91,15911.40 36685.27,15909.66"/>